%mem=32GB
%nproc=12
%chk=1-lanl2dz.chk
# opt freq=noraman hf/lanl2dz geom=connectivity

Title Card Required

0 1
 C                  1.08620800   -2.33173100   -0.01200000
 C                  0.04967100   -1.51492300   -0.03000000
 H                 -0.91075600   -2.00547500   -0.01800000
 H                  1.49343500    1.36218300   -0.38400000
 H                 -2.34416800    3.46978000    0.25200000
 H                 -3.71957600    0.93621200    0.38400000
 Sn                 0.00000000    0.58553600    0.01200000
 Sn                -2.26406900    1.78675200   -0.01200000
 F                  0.92795100   -3.69905600    0.00600000
 Br                 2.95764800   -1.88587700    0.00000000

 1 2 2.0 9 1.0 10 1.0
 2 3 1.0 7 1.0
 3
 4 7 1.0
 5 8 1.0
 6 8 1.0
 7 8 1.0
 8
 9
 10

