%mem=32GB
%nproc=12
%chk=2-lanl2dz.chk
# opt freq=noraman hf/lanl2dz geom=connectivity

Title Card Required

0 1
 C                  2.25546100    2.98341700    0.00000000
 C                  1.95702300    1.67668800    0.00000000
 H                 -1.10527704    2.09894686   -0.49353643
 H                 -2.20880400   -2.08731200    0.00000000
 H                  0.57987300   -2.78595400   -0.00000000
 Sn                 0.00000000    0.91451400    0.00000000
 Sn                -0.60004800   -1.57956000    0.00000000
 Br                 0.92480000    4.35361454    0.00000000
 H                  3.26949273    3.32494247    0.00000000
 F                  2.96874043    0.78286037    0.00000000

 1 2 2.0 8 1.0 9 1.0
 2 6 1.0 10 1.0
 3 6 1.0
 4 7 1.0
 5 7 1.0
 6 7 1.0
 7
 8
 9
 10

